  Page 1                                    Thu Feb 29 11:37:19 2024

  ******************************************************************
  *                           E P A N E T                          *
  *                   Hydraulic and Water Quality                  *
  *                   Analysis for Pipe Networks                   *
  *                         Version 2.2                            *
  ******************************************************************
  
  Analysis begun Thu Feb 29 11:37:19 2024

   
  Hydraulic Status:
  -----------------------------------------------------------------------
   
  Hydraulic Status:
  -----------------------------------------------------------------------
     0:00:00: Pump ~@High_Service_Pump changed by timer control
     0:00:00: Balancing the network:

              Trial  1: relative flow change = 2.280030
              Trial  2: relative flow change = 0.586520
              Trial  3: relative flow change = 0.373091
              Trial  4: relative flow change = 0.127376
              Trial  5: relative flow change = 0.031427
              Trial  6: relative flow change = 0.004059
              Trial  7: relative flow change = 0.001975
              Trial  8: relative flow change = 0.000958
              Trial  9: relative flow change = 0.000426
              Trial 10: relative flow change = 0.000100
                        maximum  flow change = 0.4383 for Link ~@High_Service_Pump
                        maximum  head error  = 0.0000 for Link P-1_Broad

     0:00:00: Balanced after 10 trials
     0:00:00: Reservoir R-1 is emptying
     0:00:00: Tank Bartesta_Tank is filling at 8.00 ft
     0:00:00: Tank Clearwell is filling at 27.52 ft
     0:00:00: Tank Colley_Tank is filling at 20.50 ft
     0:00:00: Tank Cowan_Tank is filling at 12.00 ft
     0:00:00: Tank Sawmill_Road_Tank is emptying at 34.62 ft
     0:00:00: Tank Tunnel_Hill_Tank is emptying at 40.98 ft
     0:00:00: Pump ~@High_Service_Pump closed
   
     1:00:00: Balancing the network:

              Trial  1: relative flow change = 0.046461
              Trial  2: relative flow change = 0.002829
              Trial  3: relative flow change = 0.000073
                        maximum  flow change = 0.2214 for Link P-8
                        maximum  head error  = 0.0000 for Link ~@Clearwell_Pump

     1:00:00: Balanced after 3 trials
   
     1:14:00: Pump ~@High_Service_Pump changed by timer control
     1:14:00: Balancing the network:

              Trial  1: relative flow change = 0.520299
              Trial  2: relative flow change = 0.357394
              Trial  3: relative flow change = 0.047703
              Trial  4: relative flow change = 0.002378
              Trial  5: relative flow change = 0.000013
                        maximum  flow change = 0.0079 for Link P-6_Old_KY_15
                        maximum  head error  = 0.0000 for Link P-5_Bartesta_Branch

     1:14:00: Balanced after 5 trials
     1:14:00: Tank Clearwell is emptying at 34.64 ft
     1:14:00: Tank Sawmill_Road_Tank is filling at 33.16 ft
     1:14:00: Tank Tunnel_Hill_Tank is filling at 38.86 ft
     1:14:00: Pump ~@High_Service_Pump changed from closed to open
   
     2:00:00: Balancing the network:

              Trial  1: relative flow change = 0.032839
              Trial  2: relative flow change = 0.000940
              Trial  3: relative flow change = 0.000008
                        maximum  flow change = 0.0082 for Link P-2
                        maximum  head error  = 0.0000 for Link P-2_Sturgill_Branch

     2:00:00: Balanced after 3 trials
   
     2:43:31: Balancing the network:

              Trial  1: relative flow change = 0.027816
              Trial  2: relative flow change = 0.000727
              Pipe P-4_Bartesta_Branch switched from open to closed
              Trial  3: relative flow change = 0.048390
              Trial  4: relative flow change = 0.001963
              Trial  5: relative flow change = 0.000016
                        maximum  flow change = 0.0044 for Link P-1_Astor_Fields
                        maximum  head error  = 0.0000 for Link ~@Cowen_Pumpa

     2:43:31: Balanced after 5 trials
     2:43:31: Tank Bartesta_Tank is closed at 10.50 ft
     2:43:31: Pipe P-4_Bartesta_Branch changed from open to temporarily closed
   
     2:50:05: Balancing the network:

              Trial  1: relative flow change = 0.003935
              Trial  2: relative flow change = 0.000020
                        maximum  flow change = 0.0321 for Link P-2
                        maximum  head error  = 0.0000 for Link ~@Bartesta_Pump

              Pipe P-1_CS_1015 switched from open to closed
              Pipe P-3_CS_1015 switched from open to closed
              Trial  3: relative flow change = 0.284130
              Trial  4: relative flow change = 0.028253
              Trial  5: relative flow change = 0.000945
              Trial  6: relative flow change = 0.000009
                        maximum  flow change = 0.0050 for Link P-4_Main
                        maximum  head error  = 0.0000 for Link P-2_Pine

     2:50:05: Balanced after 6 trials
     2:50:05: Tank Tunnel_Hill_Tank is closed at 48.00 ft
     2:50:05: Pipe P-1_CS_1015 changed from open to temporarily closed
     2:50:05: Pipe P-3_CS_1015 changed from open to temporarily closed
   
     3:00:00: Balancing the network:

              Trial  1: relative flow change = 0.002179
              Trial  2: relative flow change = 0.000012
                        maximum  flow change = 0.0372 for Link P-2
                        maximum  head error  = 0.0000 for Link ~@Clearwell_Pump

     3:00:00: Balanced after 2 trials
   
     4:00:00: Balancing the network:

              Trial  1: relative flow change = 0.012434
              Trial  2: relative flow change = 0.000202
              Trial  3: relative flow change = 0.000010
                        maximum  flow change = 0.0035 for Link P-1_KY_931a
                        maximum  head error  = 0.0000 for Link P-2_Pine

     4:00:00: Balanced after 3 trials
   
     4:50:00: Pump ~@High_Service_Pump changed by timer control
     4:50:00: Balancing the network:

              Trial  1: relative flow change = 1.899723
              Trial  2: relative flow change = 0.354549
              Pipe P-1_CS_1015 switched from closed to open
              Pipe P-3_CS_1015 switched from closed to open
              Trial  3: relative flow change = 0.294312
              Trial  4: relative flow change = 0.191345
              Trial  5: relative flow change = 0.040498
              Trial  6: relative flow change = 0.006401
              Trial  7: relative flow change = 0.000725
              Trial  8: relative flow change = 0.000276
              Trial  9: relative flow change = 0.000148
              Trial 10: relative flow change = 0.000082
                        maximum  flow change = 0.7546 for Link ~@High_Service_Pump
                        maximum  head error  = 0.0000 for Link P-1_Cornelia

     4:50:00: Balanced after 10 trials
     4:50:00: Tank Clearwell is filling at 25.15 ft
     4:50:00: Tank Sawmill_Road_Tank is emptying at 36.80 ft
     4:50:00: Tank Tunnel_Hill_Tank is emptying at 48.00 ft
     4:50:00: Pipe P-1_CS_1015 changed from temporarily closed to open
     4:50:00: Pipe P-3_CS_1015 changed from temporarily closed to open
     4:50:00: Pump ~@High_Service_Pump changed from open to closed
   
     5:00:00: Balancing the network:

              Trial  1: relative flow change = 0.022272
              Trial  2: relative flow change = 0.000415
              Trial  3: relative flow change = 0.000026
                        maximum  flow change = 0.0943 for Link ~@High_Service_Pump
                        maximum  head error  = 0.0000 for Link P-1_Center

     5:00:00: Balanced after 3 trials
   
     5:05:58: Balancing the network:

              Trial  1: relative flow change = 0.011456
              Trial  2: relative flow change = 0.000172
              Pipe P-4_Cougar switched from open to closed
              Trial  3: relative flow change = 0.261931
              Trial  4: relative flow change = 0.011601
              Trial  5: relative flow change = 0.000719
              Trial  6: relative flow change = 0.000038
                        maximum  flow change = 0.0063 for Link P-5_Main
                        maximum  head error  = 0.0000 for Link ~@Colley_Pump

     5:05:58: Balanced after 6 trials
     5:05:58: Tank Colley_Tank is closed at 23.00 ft
     5:05:58: Pipe P-4_Cougar changed from open to temporarily closed
   
     5:30:00: Pump ~@Colley_Pump changed by timer control
     5:30:00: Balancing the network:

              Trial  1: relative flow change = 0.041153
              Trial  2: relative flow change = 0.002782
              Pipe P-4_Cougar switched from closed to open
              Trial  3: relative flow change = 0.009667
              Trial  4: relative flow change = 0.000392
              Trial  5: relative flow change = 0.000068
                        maximum  flow change = 0.3666 for Link ~@Colley_Pump
                        maximum  head error  = 0.0000 for Link P-4_Indiana

     5:30:00: Balanced after 5 trials
     5:30:00: Tank Colley_Tank is emptying at 23.00 ft
     5:30:00: Pipe P-4_Cougar changed from temporarily closed to open
     5:30:00: Pump ~@Colley_Pump changed from open to closed
   
     6:00:00: Balancing the network:

              Trial  1: relative flow change = 0.040202
              Trial  2: relative flow change = 0.001441
              Trial  3: relative flow change = 0.000058
                        maximum  flow change = 0.0458 for Link ~@Colley_Pump
                        maximum  head error  = 0.0000 for Link P-1_Jenkins

     6:00:00: Balanced after 3 trials
   
     6:33:10: Balancing the network:

              Trial  1: relative flow change = 0.033648
              Trial  2: relative flow change = 0.001050
              Pipe P-2 switched from open to closed
              Trial  3: relative flow change = 0.192454
              Trial  4: relative flow change = 0.000027
                        maximum  flow change = 0.0043 for Link P-2_Hospital
                        maximum  head error  = 48.0000 for Link ~@Clearwell_Pump

     6:33:10: Balanced after 4 trials
     6:33:10: Reservoir R-1 is closed
     6:33:10: Tank Clearwell is closed at 35.00 ft
     6:33:10: Pipe P-2 changed from open to temporarily closed
   
     6:50:00: Pump ~@Clearwell_Pump changed by timer control
     6:50:00: Balancing the network:

              Trial  1: relative flow change = 0.010534
              Trial  2: relative flow change = 0.000093
                        maximum  flow change = 0.0346 for Link P-8_KY_15
                        maximum  head error  = 0.0000 for Link P-1_Madison

              Pipe P-2 switched from closed to open
              Trial  3: relative flow change = 0.000018
                        maximum  flow change = 0.0029 for Link P-1_KY_15
                        maximum  head error  = 0.0000 for Link P-1_Extension

     6:50:00: Balanced after 3 trials
     6:50:00: Pipe P-2 changed from temporarily closed to open
     6:50:00: Pump ~@Clearwell_Pump changed from open to closed
   
     7:00:00: Balancing the network:

              Trial  1: relative flow change = 0.012927
              Trial  2: relative flow change = 0.000043
                        maximum  flow change = 0.0106 for Link P-8_KY_15
                        maximum  head error  = 0.0000 for Link P-1_NeedlePoint

     7:00:00: Balanced after 2 trials
   
     8:00:00: Balancing the network:

              Trial  1: relative flow change = 0.036836
              Trial  2: relative flow change = 0.001225
              Trial  3: relative flow change = 0.000046
                        maximum  flow change = 0.0148 for Link P-8_KY_15
                        maximum  head error  = 0.0000 for Link P-9_KY_15

     8:00:00: Balanced after 3 trials
   
     9:00:00: Balancing the network:

              Trial  1: relative flow change = 0.021772
              Trial  2: relative flow change = 0.000368
              Trial  3: relative flow change = 0.000033
                        maximum  flow change = 0.0039 for Link P-1_Long
                        maximum  head error  = 0.0000 for Link P-1_NeedlePoint

     9:00:00: Balanced after 3 trials
   
     9:07:56: Balancing the network:

              Trial  1: relative flow change = 0.001837
              Trial  2: relative flow change = 0.000022
                        maximum  flow change = 0.0027 for Link P-2_Hospital
                        maximum  head error  = 0.0000 for Link P-1_NeedlePoint

              Pipe P-1_Astor_Fields switched from open to closed
              Trial  3: relative flow change = 1.756490
              Trial  4: relative flow change = 0.086000
              Trial  5: relative flow change = 0.007555
              Trial  6: relative flow change = 0.000535
              Trial  7: relative flow change = 0.000077
                        maximum  flow change = 0.0093 for Link P-1_4th
                        maximum  head error  = 0.0000 for Link P-1_4th

     9:07:56: Balanced after 7 trials
     9:07:56: Tank Cowan_Tank is closed at 20.00 ft
     9:07:56: Pipe P-1_Astor_Fields changed from open to temporarily closed
   
    10:00:00: Balancing the network:

              Trial  1: relative flow change = 0.101932
              Trial  2: relative flow change = 0.003258
              Trial  3: relative flow change = 0.000065
                        maximum  flow change = 0.0037 for Link P-5_KY_119a
                        maximum  head error  = 0.0000 for Link P-1_Fairview

    10:00:00: Balanced after 3 trials
   
    11:00:00: Balancing the network:

              Trial  1: relative flow change = 0.107252
              Trial  2: relative flow change = 0.002660
              Trial  3: relative flow change = 0.000109
              Trial  4: relative flow change = 0.000080
                        maximum  flow change = 0.0038 for Link P-4_KY_119
                        maximum  head error  = 0.0000 for Link P-2_Deadwood

    11:00:00: Balanced after 4 trials
   
    12:00:00: Balancing the network:

              Trial  1: relative flow change = 0.067832
              Trial  2: relative flow change = 0.001190
              Trial  3: relative flow change = 0.000075
                        maximum  flow change = 0.0047 for Link P-4_Main
                        maximum  head error  = 0.0000 for Link P-1_Fairview

    12:00:00: Balanced after 3 trials
   
    13:00:00: Balancing the network:

              Trial  1: relative flow change = 0.029569
              Trial  2: relative flow change = 0.000421
              Trial  3: relative flow change = 0.000072
                        maximum  flow change = 0.0049 for Link P-2_Hospital
                        maximum  head error  = 0.0000 for Link P-2_Pine

    13:00:00: Balanced after 3 trials
   
    13:30:00: Pump ~@Clearwell_Pump changed by timer control
    13:30:00: Balancing the network:

              Trial  1: relative flow change = 0.221660
              Trial  2: relative flow change = 0.002956
              Pipe P-2 switched from open to closed
              Trial  3: relative flow change = 0.461616
              Trial  4: relative flow change = 0.000086
                        maximum  flow change = 0.0051 for Link P-2_Hospital
                        maximum  head error  = 48.0000 for Link ~@Clearwell_Pump

    13:30:00: Balanced after 4 trials
    13:30:00: Pipe P-2 changed from open to temporarily closed
    13:30:00: Pump ~@Clearwell_Pump changed from closed to open
   
    14:00:00: Pump ~@High_Service_Pump changed by timer control
    14:00:00: Balancing the network:

              Trial  1: relative flow change = 0.913871
              Trial  2: relative flow change = 0.586826
              Pipe P-2 switched from closed to open
              Trial  3: relative flow change = 0.181903
              Trial  4: relative flow change = 0.014292
              Trial  5: relative flow change = 0.000221
              Trial  6: relative flow change = 0.000014
                        maximum  flow change = 0.0040 for Link P-1_KY_15
                        maximum  head error  = 47.9913 for Link ~@Clearwell_Pump

    14:00:00: Balanced after 6 trials
    14:00:00: Tank Clearwell is emptying at 35.00 ft
    14:00:00: Tank Sawmill_Road_Tank is filling at 30.04 ft
    14:00:00: Tank Tunnel_Hill_Tank is filling at 40.09 ft
    14:00:00: Pipe P-2 changed from temporarily closed to open
    14:00:00: Pump ~@High_Service_Pump changed from closed to open
   
    15:00:00: Balancing the network:

              Trial  1: relative flow change = 0.047704
              Trial  2: relative flow change = 0.002893
              Trial  3: relative flow change = 0.000016
                        maximum  flow change = 0.0049 for Link P-13_Old_KY_15
                        maximum  head error  = 39.1020 for Link ~@Clearwell_Pump

    15:00:00: Balanced after 3 trials
   
    15:06:36: Balancing the network:

              Trial  1: relative flow change = 0.004857
              Trial  2: relative flow change = 0.000039
                        maximum  flow change = 0.0188 for Link P-6_KY_15
                        maximum  head error  = 38.1716 for Link ~@Clearwell_Pump

              Pipe P-1_CS_1015 switched from open to closed
              Pipe P-3_CS_1015 switched from open to closed
              Trial  3: relative flow change = 0.496451
              Trial  4: relative flow change = 0.015673
              Trial  5: relative flow change = 0.000276
              Trial  6: relative flow change = 0.000017
                        maximum  flow change = 0.0066 for Link P-6_KY_15
                        maximum  head error  = 38.1719 for Link ~@Clearwell_Pump

    15:06:36: Balanced after 6 trials
    15:06:36: Tank Tunnel_Hill_Tank is closed at 48.00 ft
    15:06:36: Pipe P-1_CS_1015 changed from open to temporarily closed
    15:06:36: Pipe P-3_CS_1015 changed from open to temporarily closed
   
    16:00:00: Balancing the network:

              Trial  1: relative flow change = 0.021640
              Trial  2: relative flow change = 0.000219
              Trial  3: relative flow change = 0.000014
                        maximum  flow change = 0.0061 for Link P-3_KY_15
                        maximum  head error  = 31.8092 for Link ~@Clearwell_Pump

    16:00:00: Balanced after 3 trials
   
    17:00:00: Balancing the network:

              Trial  1: relative flow change = 0.024853
              Trial  2: relative flow change = 0.000266
              Trial  3: relative flow change = 0.000016
                        maximum  flow change = 0.0067 for Link P-18
                        maximum  head error  = 24.8008 for Link ~@Clearwell_Pump

    17:00:00: Balanced after 3 trials
   
    17:53:16: Balancing the network:

              Trial  1: relative flow change = 0.019991
              Trial  2: relative flow change = 0.000209
              Pipe P-18 switched from open to closed
              Trial  3: relative flow change = 2.734618
              Trial  4: relative flow change = 0.005629
              Trial  5: relative flow change = 0.000117
              Trial  6: relative flow change = 0.000080
                        maximum  flow change = 0.0065 for Link P-6_KY_15
                        maximum  head error  = 18.7136 for Link ~@Clearwell_Pump

    17:53:16: Balanced after 6 trials
    17:53:16: Tank Sawmill_Road_Tank is closed at 37.00 ft
    17:53:16: Pipe P-18 changed from open to temporarily closed
   
    18:00:00: Balancing the network:

              Trial  1: relative flow change = 0.006984
              Trial  2: relative flow change = 0.000050
                        maximum  flow change = 0.0047 for Link P-9
                        maximum  head error  = 18.4982 for Link ~@Clearwell_Pump

    18:00:00: Balanced after 2 trials
   
    19:00:00: Balancing the network:

              Trial  1: relative flow change = 0.006454
              Trial  2: relative flow change = 0.000107
              Trial  3: relative flow change = 0.000105
              Trial  4: relative flow change = 0.000058
                        maximum  flow change = 0.0061 for Link P-7
                        maximum  head error  = 16.5811 for Link ~@Clearwell_Pump

    19:00:00: Balanced after 4 trials
   
    20:00:00: Balancing the network:

              Trial  1: relative flow change = 0.006011
              Trial  2: relative flow change = 0.000072
                        maximum  flow change = 0.0046 for Link P-6_KY_15
                        maximum  head error  = 14.6635 for Link ~@Clearwell_Pump

    20:00:00: Balanced after 2 trials
   
    20:51:57: Balancing the network:

              Trial  1: relative flow change = 0.000073
                        maximum  flow change = 0.0068 for Link P-6_KY_15
                        maximum  head error  = 13.0001 for Link ~@Clearwell_Pump

              Pipe P-7 switched from open to closed
              Trial  2: relative flow change = 1.874510
              Trial  3: relative flow change = 0.287143
              Pipe P-18 switched from closed to open
              Pipe P-1_Astor_Fields switched from closed to open
              Pipe P-1_CS_1015 switched from closed to open
              Pipe P-3_CS_1015 switched from closed to open
              Pipe P-4_Bartesta_Branch switched from closed to open
              Pump ~@Bartesta_Pump switched from open to closed
              Pump ~@Cowen_Pumpa switched from open to closed
              Trial  4: relative flow change = 1.421973
              Trial  5: relative flow change = 0.320751
              Pump ~@Bartesta_Pump switched from closed to open
              Pump ~@Cowen_Pumpa switched from closed to open
              Trial  6: relative flow change = 0.992723
              Trial  7: relative flow change = 0.905627
              Pipe P-18 switched from open to closed
              Pipe P-1_CS_1015 switched from open to closed
              Pipe P-3_CS_1015 switched from open to closed
              Pipe P-4_Bartesta_Branch switched from open to closed
              Pump ~@Bartesta_Pump switched from open to closed
              Trial  8: relative flow change = 5.461622
              Trial  9: relative flow change = 1.155160
              Pipe P-4_Bartesta_Branch switched from closed to open
              Pump ~@Bartesta_Pump switched from closed to open
              Trial 10: relative flow change = 0.246092
              Trial 11: relative flow change = 0.081138
              Trial 12: relative flow change = 0.012864
              Trial 13: relative flow change = 0.000765
              Trial 14: relative flow change = 0.000036
                        maximum  flow change = 0.0050 for Link P-5_Main
                        maximum  head error  = 107.4185 for Link ~@High_Service_Pump

              Pipe P-18 switched from closed to open
              Pipe P-1_CS_1015 switched from closed to open
              Pipe P-3_CS_1015 switched from closed to open
              Pump ~@Bartesta_Pump switched from open to closed
              Pump ~@Cowen_Pumpa switched from open to closed
              Trial 15: relative flow change = 3.304090
              Trial 16: relative flow change = 0.367075
              Trial 17: relative flow change = 0.085422
              Trial 18: relative flow change = 0.015667
              Trial 19: relative flow change = 0.000401
              Trial 20: relative flow change = 0.000104
              Trial 21: relative flow change = 0.000094
                        maximum  flow change = 0.0039 for Link P-1_Driftwood_Loop
                        maximum  head error  = 237.7708 for Link ~@High_Service_Pump

              Pump ~@Bartesta_Pump switched from closed to open
              Pump ~@Cowen_Pumpa switched from closed to open
              Trial 22: relative flow change = 0.992392
              Trial 23: relative flow change = 0.911161
              Trial 24: relative flow change = 0.648869
              Trial 25: relative flow change = 0.508099
              Trial 26: relative flow change = 0.391835
              Trial 27: relative flow change = 0.417442
              Trial 28: relative flow change = 0.452198
              Trial 29: relative flow change = 0.490290
              Trial 30: relative flow change = 0.532607
              Trial 31: relative flow change = 0.589107
              Trial 32: relative flow change = 1.081414
              Trial 33: relative flow change = 1.119781
              Trial 34: relative flow change = 0.292003
              Trial 35: relative flow change = 0.082456
              Trial 36: relative flow change = 0.007775
              Trial 37: relative flow change = 0.000087
                        maximum  flow change = 0.0096 for Link P-21_KY_931
                        maximum  head error  = 236.8794 for Link ~@High_Service_Pump

              Pipe P-1_Astor_Fields switched from open to closed
              Pipe P-4_Bartesta_Branch switched from open to closed
              Trial 38: relative flow change = 2.057252
              Trial 39: relative flow change = 0.043428
              Trial 40: relative flow change = 0.003368
              Trial 41: relative flow change = 0.000179
              Trial 42: relative flow change = 0.000146
              Trial 43: relative flow change = 0.000137
              Trial 44: relative flow change = 0.000083
                        maximum  flow change = 0.0039 for Link P-2_Hospital
                        maximum  head error  = 237.7163 for Link ~@High_Service_Pump

    20:51:57: Balanced after 44 trials
    20:51:57: Tank Clearwell is closed at 0.00 ft
    20:51:57: Tank Sawmill_Road_Tank is emptying at 37.00 ft
    20:51:57: Tank Tunnel_Hill_Tank is emptying at 48.00 ft
    20:51:57: Pipe P-7 changed from open to temporarily closed
    20:51:57: Pipe P-18 changed from temporarily closed to open
    20:51:57: Pipe P-1_CS_1015 changed from temporarily closed to open
    20:51:57: Pipe P-3_CS_1015 changed from temporarily closed to open
   
    21:00:00: Pump ~@Colley_Pump changed by timer control
    21:00:00: Balancing the network:

              Trial  1: relative flow change = 0.963991
              Trial  2: relative flow change = 1.564365
              Trial  3: relative flow change = 1.564405
              Trial  4: relative flow change = 0.489913
              Trial  5: relative flow change = 0.183349
              Trial  6: relative flow change = 0.055590
              Trial  7: relative flow change = 0.003620
              Trial  8: relative flow change = 0.000237
              Trial  9: relative flow change = 0.000068
                        maximum  flow change = 0.0069 for Link P-2_Tennessee
                        maximum  head error  = 236.8587 for Link ~@High_Service_Pump

    21:00:00: Balanced after 9 trials
    21:00:00: Tank Colley_Tank is filling at 21.49 ft
    21:00:00: Pump ~@Colley_Pump changed from closed to open
   
    22:00:00: Balancing the network:

              Trial  1: relative flow change = 0.180948
              Trial  2: relative flow change = 0.020276
              Trial  3: relative flow change = 0.001501
              Trial  4: relative flow change = 0.000054
                        maximum  flow change = 0.0209 for Link P-1_4th
                        maximum  head error  = 235.1209 for Link ~@High_Service_Pump

    22:00:00: Balanced after 4 trials
   
    23:00:00: Balancing the network:

              Trial  1: relative flow change = 0.096206
              Trial  2: relative flow change = 0.003067
              Trial  3: relative flow change = 0.000035
                        maximum  flow change = 0.0043 for Link P-1_Cougar
                        maximum  head error  = 233.6173 for Link ~@High_Service_Pump

    23:00:00: Balanced after 3 trials
   
    24:00:00: Balancing the network:

              Trial  1: relative flow change = 0.052290
              Trial  2: relative flow change = 0.001032
              Trial  3: relative flow change = 0.000054
                        maximum  flow change = 0.0081 for Link P-2_Hospital
                        maximum  head error  = 232.2821 for Link ~@High_Service_Pump

    24:00:00: Balanced after 3 trials
   
   
  Hydraulic Status:
  -----------------------------------------------------------------------
   
  Hydraulic Status:
  -----------------------------------------------------------------------
     0:00:00: Pump ~@High_Service_Pump changed by timer control
     0:00:00: Balancing the network:

              Trial  1: relative flow change = 2.280030
              Trial  2: relative flow change = 0.586520
              Trial  3: relative flow change = 0.373091
              Trial  4: relative flow change = 0.127376
              Trial  5: relative flow change = 0.031427
              Trial  6: relative flow change = 0.004059
              Trial  7: relative flow change = 0.001975
              Trial  8: relative flow change = 0.000958
              Trial  9: relative flow change = 0.000426
              Trial 10: relative flow change = 0.000100
                        maximum  flow change = 0.4383 for Link ~@High_Service_Pump
                        maximum  head error  = 0.0000 for Link P-1_Broad

     0:00:00: Balanced after 10 trials
     0:00:00: Reservoir R-1 is emptying
     0:00:00: Tank Bartesta_Tank is filling at 8.00 ft
     0:00:00: Tank Clearwell is filling at 27.52 ft
     0:00:00: Tank Colley_Tank is filling at 20.50 ft
     0:00:00: Tank Cowan_Tank is filling at 12.00 ft
     0:00:00: Tank Sawmill_Road_Tank is emptying at 34.62 ft
     0:00:00: Tank Tunnel_Hill_Tank is emptying at 40.98 ft
     0:00:00: Pump ~@High_Service_Pump closed
   
     1:00:00: Balancing the network:

              Trial  1: relative flow change = 0.046461
              Trial  2: relative flow change = 0.002829
              Trial  3: relative flow change = 0.000073
                        maximum  flow change = 0.2214 for Link P-8
                        maximum  head error  = 0.0000 for Link ~@Clearwell_Pump

     1:00:00: Balanced after 3 trials
   
     1:14:00: Pump ~@High_Service_Pump changed by timer control
     1:14:00: Balancing the network:

              Trial  1: relative flow change = 0.520299
              Trial  2: relative flow change = 0.357394
              Trial  3: relative flow change = 0.047703
              Trial  4: relative flow change = 0.002378
              Trial  5: relative flow change = 0.000013
                        maximum  flow change = 0.0079 for Link P-6_Old_KY_15
                        maximum  head error  = 0.0000 for Link P-5_Bartesta_Branch

     1:14:00: Balanced after 5 trials
     1:14:00: Tank Clearwell is emptying at 34.64 ft
     1:14:00: Tank Sawmill_Road_Tank is filling at 33.16 ft
     1:14:00: Tank Tunnel_Hill_Tank is filling at 38.86 ft
     1:14:00: Pump ~@High_Service_Pump changed from closed to open
   
     2:00:00: Balancing the network:

              Trial  1: relative flow change = 0.032839
              Trial  2: relative flow change = 0.000940
              Trial  3: relative flow change = 0.000008
                        maximum  flow change = 0.0082 for Link P-2
                        maximum  head error  = 0.0000 for Link P-2_Sturgill_Branch

     2:00:00: Balanced after 3 trials
   
     2:43:31: Balancing the network:

              Trial  1: relative flow change = 0.027816
              Trial  2: relative flow change = 0.000727
              Pipe P-4_Bartesta_Branch switched from open to closed
              Trial  3: relative flow change = 0.048390
              Trial  4: relative flow change = 0.001963
              Trial  5: relative flow change = 0.000016
                        maximum  flow change = 0.0044 for Link P-1_Astor_Fields
                        maximum  head error  = 0.0000 for Link ~@Cowen_Pumpa

     2:43:31: Balanced after 5 trials
     2:43:31: Tank Bartesta_Tank is closed at 10.50 ft
     2:43:31: Pipe P-4_Bartesta_Branch changed from open to temporarily closed
   
     2:50:05: Balancing the network:

              Trial  1: relative flow change = 0.003935
              Trial  2: relative flow change = 0.000020
                        maximum  flow change = 0.0321 for Link P-2
                        maximum  head error  = 0.0000 for Link ~@Bartesta_Pump

              Pipe P-1_CS_1015 switched from open to closed
              Pipe P-3_CS_1015 switched from open to closed
              Trial  3: relative flow change = 0.284130
              Trial  4: relative flow change = 0.028253
              Trial  5: relative flow change = 0.000945
              Trial  6: relative flow change = 0.000009
                        maximum  flow change = 0.0050 for Link P-4_Main
                        maximum  head error  = 0.0000 for Link P-2_Pine

     2:50:05: Balanced after 6 trials
     2:50:05: Tank Tunnel_Hill_Tank is closed at 48.00 ft
     2:50:05: Pipe P-1_CS_1015 changed from open to temporarily closed
     2:50:05: Pipe P-3_CS_1015 changed from open to temporarily closed
   
     3:00:00: Balancing the network:

              Trial  1: relative flow change = 0.002179
              Trial  2: relative flow change = 0.000012
                        maximum  flow change = 0.0372 for Link P-2
                        maximum  head error  = 0.0000 for Link ~@Clearwell_Pump

     3:00:00: Balanced after 2 trials
   
     4:00:00: Balancing the network:

              Trial  1: relative flow change = 0.012434
              Trial  2: relative flow change = 0.000202
              Trial  3: relative flow change = 0.000010
                        maximum  flow change = 0.0035 for Link P-1_KY_931a
                        maximum  head error  = 0.0000 for Link P-2_Pine

     4:00:00: Balanced after 3 trials
   
     4:50:00: Pump ~@High_Service_Pump changed by timer control
     4:50:00: Balancing the network:

              Trial  1: relative flow change = 1.899723
              Trial  2: relative flow change = 0.354549
              Pipe P-1_CS_1015 switched from closed to open
              Pipe P-3_CS_1015 switched from closed to open
              Trial  3: relative flow change = 0.294312
              Trial  4: relative flow change = 0.191345
              Trial  5: relative flow change = 0.040498
              Trial  6: relative flow change = 0.006401
              Trial  7: relative flow change = 0.000725
              Trial  8: relative flow change = 0.000276
              Trial  9: relative flow change = 0.000148
              Trial 10: relative flow change = 0.000082
                        maximum  flow change = 0.7546 for Link ~@High_Service_Pump
                        maximum  head error  = 0.0000 for Link P-1_Cornelia

     4:50:00: Balanced after 10 trials
     4:50:00: Tank Clearwell is filling at 25.15 ft
     4:50:00: Tank Sawmill_Road_Tank is emptying at 36.80 ft
     4:50:00: Tank Tunnel_Hill_Tank is emptying at 48.00 ft
     4:50:00: Pipe P-1_CS_1015 changed from temporarily closed to open
     4:50:00: Pipe P-3_CS_1015 changed from temporarily closed to open
     4:50:00: Pump ~@High_Service_Pump changed from open to closed
   
     5:00:00: Balancing the network:

              Trial  1: relative flow change = 0.022272
              Trial  2: relative flow change = 0.000415
              Trial  3: relative flow change = 0.000026
                        maximum  flow change = 0.0943 for Link ~@High_Service_Pump
                        maximum  head error  = 0.0000 for Link P-1_Center

     5:00:00: Balanced after 3 trials
   
     5:05:58: Balancing the network:

              Trial  1: relative flow change = 0.011456
              Trial  2: relative flow change = 0.000172
              Pipe P-4_Cougar switched from open to closed
              Trial  3: relative flow change = 0.261931
              Trial  4: relative flow change = 0.011601
              Trial  5: relative flow change = 0.000719
              Trial  6: relative flow change = 0.000038
                        maximum  flow change = 0.0063 for Link P-5_Main
                        maximum  head error  = 0.0000 for Link ~@Colley_Pump

     5:05:58: Balanced after 6 trials
     5:05:58: Tank Colley_Tank is closed at 23.00 ft
     5:05:58: Pipe P-4_Cougar changed from open to temporarily closed
   
     5:30:00: Pump ~@Colley_Pump changed by timer control
     5:30:00: Balancing the network:

              Trial  1: relative flow change = 0.041153
              Trial  2: relative flow change = 0.002782
              Pipe P-4_Cougar switched from closed to open
              Trial  3: relative flow change = 0.009667
              Trial  4: relative flow change = 0.000392
              Trial  5: relative flow change = 0.000068
                        maximum  flow change = 0.3666 for Link ~@Colley_Pump
                        maximum  head error  = 0.0000 for Link P-4_Indiana

     5:30:00: Balanced after 5 trials
     5:30:00: Tank Colley_Tank is emptying at 23.00 ft
     5:30:00: Pipe P-4_Cougar changed from temporarily closed to open
     5:30:00: Pump ~@Colley_Pump changed from open to closed
   
     6:00:00: Balancing the network:

              Trial  1: relative flow change = 0.040202
              Trial  2: relative flow change = 0.001441
              Trial  3: relative flow change = 0.000058
                        maximum  flow change = 0.0458 for Link ~@Colley_Pump
                        maximum  head error  = 0.0000 for Link P-1_Jenkins

     6:00:00: Balanced after 3 trials
   
     6:33:10: Balancing the network:

              Trial  1: relative flow change = 0.033648
              Trial  2: relative flow change = 0.001050
              Pipe P-2 switched from open to closed
              Trial  3: relative flow change = 0.192454
              Trial  4: relative flow change = 0.000027
                        maximum  flow change = 0.0043 for Link P-2_Hospital
                        maximum  head error  = 48.0000 for Link ~@Clearwell_Pump

     6:33:10: Balanced after 4 trials
     6:33:10: Reservoir R-1 is closed
     6:33:10: Tank Clearwell is closed at 35.00 ft
     6:33:10: Pipe P-2 changed from open to temporarily closed
   
     6:50:00: Pump ~@Clearwell_Pump changed by timer control
     6:50:00: Balancing the network:

              Trial  1: relative flow change = 0.010534
              Trial  2: relative flow change = 0.000093
                        maximum  flow change = 0.0346 for Link P-8_KY_15
                        maximum  head error  = 0.0000 for Link P-1_Madison

              Pipe P-2 switched from closed to open
              Trial  3: relative flow change = 0.000018
                        maximum  flow change = 0.0029 for Link P-1_KY_15
                        maximum  head error  = 0.0000 for Link P-1_Extension

     6:50:00: Balanced after 3 trials
     6:50:00: Pipe P-2 changed from temporarily closed to open
     6:50:00: Pump ~@Clearwell_Pump changed from open to closed
   
     7:00:00: Balancing the network:

              Trial  1: relative flow change = 0.012927
              Trial  2: relative flow change = 0.000043
                        maximum  flow change = 0.0106 for Link P-8_KY_15
                        maximum  head error  = 0.0000 for Link P-1_NeedlePoint

     7:00:00: Balanced after 2 trials
   
     8:00:00: Balancing the network:

              Trial  1: relative flow change = 0.036836
              Trial  2: relative flow change = 0.001225
              Trial  3: relative flow change = 0.000046
                        maximum  flow change = 0.0148 for Link P-8_KY_15
                        maximum  head error  = 0.0000 for Link P-9_KY_15

     8:00:00: Balanced after 3 trials
   
     9:00:00: Balancing the network:

              Trial  1: relative flow change = 0.021772
              Trial  2: relative flow change = 0.000368
              Trial  3: relative flow change = 0.000033
                        maximum  flow change = 0.0039 for Link P-1_Long
                        maximum  head error  = 0.0000 for Link P-1_NeedlePoint

     9:00:00: Balanced after 3 trials
   
     9:07:56: Balancing the network:

              Trial  1: relative flow change = 0.001837
              Trial  2: relative flow change = 0.000022
                        maximum  flow change = 0.0027 for Link P-2_Hospital
                        maximum  head error  = 0.0000 for Link P-1_NeedlePoint

              Pipe P-1_Astor_Fields switched from open to closed
              Trial  3: relative flow change = 1.756490
              Trial  4: relative flow change = 0.086000
              Trial  5: relative flow change = 0.007555
              Trial  6: relative flow change = 0.000535
              Trial  7: relative flow change = 0.000077
                        maximum  flow change = 0.0093 for Link P-1_4th
                        maximum  head error  = 0.0000 for Link P-1_4th

     9:07:56: Balanced after 7 trials
     9:07:56: Tank Cowan_Tank is closed at 20.00 ft
     9:07:56: Pipe P-1_Astor_Fields changed from open to temporarily closed
   
    10:00:00: Balancing the network:

              Trial  1: relative flow change = 0.101932
              Trial  2: relative flow change = 0.003258
              Trial  3: relative flow change = 0.000065
                        maximum  flow change = 0.0037 for Link P-5_KY_119a
                        maximum  head error  = 0.0000 for Link P-1_Fairview

    10:00:00: Balanced after 3 trials
   
    11:00:00: Balancing the network:

              Trial  1: relative flow change = 0.107252
              Trial  2: relative flow change = 0.002660
              Trial  3: relative flow change = 0.000109
              Trial  4: relative flow change = 0.000080
                        maximum  flow change = 0.0038 for Link P-4_KY_119
                        maximum  head error  = 0.0000 for Link P-2_Deadwood

    11:00:00: Balanced after 4 trials
   
    12:00:00: Balancing the network:

              Trial  1: relative flow change = 0.067832
              Trial  2: relative flow change = 0.001190
              Trial  3: relative flow change = 0.000075
                        maximum  flow change = 0.0047 for Link P-4_Main
                        maximum  head error  = 0.0000 for Link P-1_Fairview

    12:00:00: Balanced after 3 trials
   
    13:00:00: Balancing the network:

              Trial  1: relative flow change = 0.029569
              Trial  2: relative flow change = 0.000421
              Trial  3: relative flow change = 0.000072
                        maximum  flow change = 0.0049 for Link P-2_Hospital
                        maximum  head error  = 0.0000 for Link P-2_Pine

    13:00:00: Balanced after 3 trials
   
    13:30:00: Pump ~@Clearwell_Pump changed by timer control
    13:30:00: Balancing the network:

              Trial  1: relative flow change = 0.221660
              Trial  2: relative flow change = 0.002956
              Pipe P-2 switched from open to closed
              Trial  3: relative flow change = 0.461616
              Trial  4: relative flow change = 0.000086
                        maximum  flow change = 0.0051 for Link P-2_Hospital
                        maximum  head error  = 48.0000 for Link ~@Clearwell_Pump

    13:30:00: Balanced after 4 trials
    13:30:00: Pipe P-2 changed from open to temporarily closed
    13:30:00: Pump ~@Clearwell_Pump changed from closed to open
   
    14:00:00: Pump ~@High_Service_Pump changed by timer control
    14:00:00: Balancing the network:

              Trial  1: relative flow change = 0.913871
              Trial  2: relative flow change = 0.586826
              Pipe P-2 switched from closed to open
              Trial  3: relative flow change = 0.181903
              Trial  4: relative flow change = 0.014292
              Trial  5: relative flow change = 0.000221
              Trial  6: relative flow change = 0.000014
                        maximum  flow change = 0.0040 for Link P-1_KY_15
                        maximum  head error  = 47.9913 for Link ~@Clearwell_Pump

    14:00:00: Balanced after 6 trials
    14:00:00: Tank Clearwell is emptying at 35.00 ft
    14:00:00: Tank Sawmill_Road_Tank is filling at 30.04 ft
    14:00:00: Tank Tunnel_Hill_Tank is filling at 40.09 ft
    14:00:00: Pipe P-2 changed from temporarily closed to open
    14:00:00: Pump ~@High_Service_Pump changed from closed to open
   
    15:00:00: Balancing the network:

              Trial  1: relative flow change = 0.047704
              Trial  2: relative flow change = 0.002893
              Trial  3: relative flow change = 0.000016
                        maximum  flow change = 0.0049 for Link P-13_Old_KY_15
                        maximum  head error  = 39.1020 for Link ~@Clearwell_Pump

    15:00:00: Balanced after 3 trials
   
    15:06:36: Balancing the network:

              Trial  1: relative flow change = 0.004857
              Trial  2: relative flow change = 0.000039
                        maximum  flow change = 0.0188 for Link P-6_KY_15
                        maximum  head error  = 38.1716 for Link ~@Clearwell_Pump

              Pipe P-1_CS_1015 switched from open to closed
              Pipe P-3_CS_1015 switched from open to closed
              Trial  3: relative flow change = 0.496451
              Trial  4: relative flow change = 0.015673
              Trial  5: relative flow change = 0.000276
              Trial  6: relative flow change = 0.000017
                        maximum  flow change = 0.0066 for Link P-6_KY_15
                        maximum  head error  = 38.1719 for Link ~@Clearwell_Pump

    15:06:36: Balanced after 6 trials
    15:06:36: Tank Tunnel_Hill_Tank is closed at 48.00 ft
    15:06:36: Pipe P-1_CS_1015 changed from open to temporarily closed
    15:06:36: Pipe P-3_CS_1015 changed from open to temporarily closed
   
    16:00:00: Balancing the network:

              Trial  1: relative flow change = 0.021640
              Trial  2: relative flow change = 0.000219
              Trial  3: relative flow change = 0.000014
                        maximum  flow change = 0.0061 for Link P-3_KY_15
                        maximum  head error  = 31.8092 for Link ~@Clearwell_Pump

    16:00:00: Balanced after 3 trials
   
    17:00:00: Balancing the network:

              Trial  1: relative flow change = 0.024853
              Trial  2: relative flow change = 0.000266
              Trial  3: relative flow change = 0.000016
                        maximum  flow change = 0.0067 for Link P-18
                        maximum  head error  = 24.8008 for Link ~@Clearwell_Pump

    17:00:00: Balanced after 3 trials
   
    17:53:16: Balancing the network:

              Trial  1: relative flow change = 0.019991
              Trial  2: relative flow change = 0.000209
              Pipe P-18 switched from open to closed
              Trial  3: relative flow change = 2.734618
              Trial  4: relative flow change = 0.005629
              Trial  5: relative flow change = 0.000117
              Trial  6: relative flow change = 0.000080
                        maximum  flow change = 0.0065 for Link P-6_KY_15
                        maximum  head error  = 18.7136 for Link ~@Clearwell_Pump

    17:53:16: Balanced after 6 trials
    17:53:16: Tank Sawmill_Road_Tank is closed at 37.00 ft
    17:53:16: Pipe P-18 changed from open to temporarily closed
   
    18:00:00: Balancing the network:

              Trial  1: relative flow change = 0.006984
              Trial  2: relative flow change = 0.000050
                        maximum  flow change = 0.0047 for Link P-9
                        maximum  head error  = 18.4982 for Link ~@Clearwell_Pump

    18:00:00: Balanced after 2 trials
   
    19:00:00: Balancing the network:

              Trial  1: relative flow change = 0.006454
              Trial  2: relative flow change = 0.000107
              Trial  3: relative flow change = 0.000105
              Trial  4: relative flow change = 0.000058
                        maximum  flow change = 0.0061 for Link P-7
                        maximum  head error  = 16.5811 for Link ~@Clearwell_Pump

    19:00:00: Balanced after 4 trials
   
    20:00:00: Balancing the network:

              Trial  1: relative flow change = 0.006011
              Trial  2: relative flow change = 0.000072
                        maximum  flow change = 0.0046 for Link P-6_KY_15
                        maximum  head error  = 14.6635 for Link ~@Clearwell_Pump

    20:00:00: Balanced after 2 trials
   
    20:51:57: Balancing the network:

              Trial  1: relative flow change = 0.000073
                        maximum  flow change = 0.0068 for Link P-6_KY_15
                        maximum  head error  = 13.0001 for Link ~@Clearwell_Pump

              Pipe P-7 switched from open to closed
              Trial  2: relative flow change = 1.874510
              Trial  3: relative flow change = 0.287143
              Pipe P-18 switched from closed to open
              Pipe P-1_Astor_Fields switched from closed to open
              Pipe P-1_CS_1015 switched from closed to open
              Pipe P-3_CS_1015 switched from closed to open
              Pipe P-4_Bartesta_Branch switched from closed to open
              Pump ~@Bartesta_Pump switched from open to closed
              Pump ~@Cowen_Pumpa switched from open to closed
              Trial  4: relative flow change = 1.421973
              Trial  5: relative flow change = 0.320751
              Pump ~@Bartesta_Pump switched from closed to open
              Pump ~@Cowen_Pumpa switched from closed to open
              Trial  6: relative flow change = 0.992723
              Trial  7: relative flow change = 0.905627
              Pipe P-18 switched from open to closed
              Pipe P-1_CS_1015 switched from open to closed
              Pipe P-3_CS_1015 switched from open to closed
              Pipe P-4_Bartesta_Branch switched from open to closed
              Pump ~@Bartesta_Pump switched from open to closed
              Trial  8: relative flow change = 5.461622
              Trial  9: relative flow change = 1.155160
              Pipe P-4_Bartesta_Branch switched from closed to open
              Pump ~@Bartesta_Pump switched from closed to open
              Trial 10: relative flow change = 0.246092
              Trial 11: relative flow change = 0.081138
              Trial 12: relative flow change = 0.012864
              Trial 13: relative flow change = 0.000765
              Trial 14: relative flow change = 0.000036
                        maximum  flow change = 0.0050 for Link P-5_Main
                        maximum  head error  = 107.4185 for Link ~@High_Service_Pump

              Pipe P-18 switched from closed to open
              Pipe P-1_CS_1015 switched from closed to open
              Pipe P-3_CS_1015 switched from closed to open
              Pump ~@Bartesta_Pump switched from open to closed
              Pump ~@Cowen_Pumpa switched from open to closed
              Trial 15: relative flow change = 3.304090
              Trial 16: relative flow change = 0.367075
              Trial 17: relative flow change = 0.085422
              Trial 18: relative flow change = 0.015667
              Trial 19: relative flow change = 0.000401
              Trial 20: relative flow change = 0.000104
              Trial 21: relative flow change = 0.000094
                        maximum  flow change = 0.0039 for Link P-1_Driftwood_Loop
                        maximum  head error  = 237.7708 for Link ~@High_Service_Pump

              Pump ~@Bartesta_Pump switched from closed to open
              Pump ~@Cowen_Pumpa switched from closed to open
              Trial 22: relative flow change = 0.992392
              Trial 23: relative flow change = 0.911161
              Trial 24: relative flow change = 0.648869
              Trial 25: relative flow change = 0.508099
              Trial 26: relative flow change = 0.391835
              Trial 27: relative flow change = 0.417442
              Trial 28: relative flow change = 0.452198
              Trial 29: relative flow change = 0.490290
              Trial 30: relative flow change = 0.532607
              Trial 31: relative flow change = 0.589107
              Trial 32: relative flow change = 1.081414
              Trial 33: relative flow change = 1.119781
              Trial 34: relative flow change = 0.292003
              Trial 35: relative flow change = 0.082456
              Trial 36: relative flow change = 0.007775
              Trial 37: relative flow change = 0.000087
                        maximum  flow change = 0.0096 for Link P-21_KY_931
                        maximum  head error  = 236.8794 for Link ~@High_Service_Pump

              Pipe P-1_Astor_Fields switched from open to closed
              Pipe P-4_Bartesta_Branch switched from open to closed
              Trial 38: relative flow change = 2.057252
              Trial 39: relative flow change = 0.043428
              Trial 40: relative flow change = 0.003368
              Trial 41: relative flow change = 0.000179
              Trial 42: relative flow change = 0.000146
              Trial 43: relative flow change = 0.000137
              Trial 44: relative flow change = 0.000083
                        maximum  flow change = 0.0039 for Link P-2_Hospital
                        maximum  head error  = 237.7163 for Link ~@High_Service_Pump

    20:51:57: Balanced after 44 trials
    20:51:57: Tank Clearwell is closed at 0.00 ft
    20:51:57: Tank Sawmill_Road_Tank is emptying at 37.00 ft
    20:51:57: Tank Tunnel_Hill_Tank is emptying at 48.00 ft
    20:51:57: Pipe P-7 changed from open to temporarily closed
    20:51:57: Pipe P-18 changed from temporarily closed to open
    20:51:57: Pipe P-1_CS_1015 changed from temporarily closed to open
    20:51:57: Pipe P-3_CS_1015 changed from temporarily closed to open
   
    21:00:00: Pump ~@Colley_Pump changed by timer control
    21:00:00: Balancing the network:

              Trial  1: relative flow change = 0.963991
              Trial  2: relative flow change = 1.564365
              Trial  3: relative flow change = 1.564405
              Trial  4: relative flow change = 0.489913
              Trial  5: relative flow change = 0.183349
              Trial  6: relative flow change = 0.055590
              Trial  7: relative flow change = 0.003620
              Trial  8: relative flow change = 0.000237
              Trial  9: relative flow change = 0.000068
                        maximum  flow change = 0.0069 for Link P-2_Tennessee
                        maximum  head error  = 236.8587 for Link ~@High_Service_Pump

    21:00:00: Balanced after 9 trials
    21:00:00: Tank Colley_Tank is filling at 21.49 ft
    21:00:00: Pump ~@Colley_Pump changed from closed to open
   
    22:00:00: Balancing the network:

              Trial  1: relative flow change = 0.180948
              Trial  2: relative flow change = 0.020276
              Trial  3: relative flow change = 0.001501
              Trial  4: relative flow change = 0.000054
                        maximum  flow change = 0.0209 for Link P-1_4th
                        maximum  head error  = 235.1209 for Link ~@High_Service_Pump

    22:00:00: Balanced after 4 trials
   
    23:00:00: Balancing the network:

              Trial  1: relative flow change = 0.096206
              Trial  2: relative flow change = 0.003067
              Trial  3: relative flow change = 0.000035
                        maximum  flow change = 0.0043 for Link P-1_Cougar
                        maximum  head error  = 233.6173 for Link ~@High_Service_Pump

    23:00:00: Balanced after 3 trials
   
    24:00:00: Balancing the network:

              Trial  1: relative flow change = 0.052290
              Trial  2: relative flow change = 0.001032
              Trial  3: relative flow change = 0.000054
                        maximum  flow change = 0.0081 for Link P-2_Hospital
                        maximum  head error  = 232.2821 for Link ~@High_Service_Pump

    24:00:00: Balanced after 3 trials
   
   
  Hydraulic Status:
  -----------------------------------------------------------------------
   
  Hydraulic Status:
  -----------------------------------------------------------------------
     0:00:00: Pump ~@High_Service_Pump changed by timer control
     0:00:00: Balancing the network:

              Trial  1: relative flow change = 2.164960
              Trial  2: relative flow change = 0.512825
              Trial  3: relative flow change = 0.352049
              Trial  4: relative flow change = 0.098605
              Trial  5: relative flow change = 0.020092
              Trial  6: relative flow change = 0.004623
              Trial  7: relative flow change = 0.001700
              Trial  8: relative flow change = 0.000628
              Trial  9: relative flow change = 0.000275
              Trial 10: relative flow change = 0.000061
                        maximum  flow change = 0.4383 for Link ~@High_Service_Pump
                        maximum  head error  = 0.0000 for Link P-1_Lima

     0:00:00: Balanced after 10 trials
     0:00:00: Reservoir R-1 is emptying
     0:00:00: Tank Bartesta_Tank is filling at 8.00 ft
     0:00:00: Tank Clearwell is filling at 27.52 ft
     0:00:00: Tank Colley_Tank is filling at 20.50 ft
     0:00:00: Tank Cowan_Tank is filling at 12.00 ft
     0:00:00: Tank Sawmill_Road_Tank is emptying at 34.62 ft
     0:00:00: Tank Tunnel_Hill_Tank is emptying at 40.98 ft
     0:00:00: Pump ~@High_Service_Pump closed
   
     1:00:00: Balancing the network:

              Trial  1: relative flow change = 0.229478
              Trial  2: relative flow change = 0.035982
              Trial  3: relative flow change = 0.003918
              Trial  4: relative flow change = 0.000407
              Trial  5: relative flow change = 0.000041
                        maximum  flow change = 0.0577 for Link P-1_4th
                        maximum  head error  = 0.0000 for Link P-1_4th

     1:00:00: Balanced after 5 trials
   
     1:14:00: Pump ~@High_Service_Pump changed by timer control
     1:14:00: Balancing the network:

              Trial  1: relative flow change = 0.509628
              Trial  2: relative flow change = 0.388894
              Trial  3: relative flow change = 0.053868
              Trial  4: relative flow change = 0.002670
              Trial  5: relative flow change = 0.000017
                        maximum  flow change = 0.0090 for Link P-4_Jenkins
                        maximum  head error  = 0.0000 for Link P-4_Jenkins

     1:14:00: Balanced after 5 trials
     1:14:00: Tank Clearwell is emptying at 34.64 ft
     1:14:00: Tank Sawmill_Road_Tank is filling at 32.90 ft
     1:14:00: Tank Tunnel_Hill_Tank is filling at 37.74 ft
     1:14:00: Pump ~@High_Service_Pump changed from closed to open
   
     2:00:00: Balancing the network:

              Trial  1: relative flow change = 0.033345
              Trial  2: relative flow change = 0.000954
              Trial  3: relative flow change = 0.000009
                        maximum  flow change = 0.0084 for Link P-2
                        maximum  head error  = 0.0000 for Link ~@Clearwell_Pump

     2:00:00: Balanced after 3 trials
   
     2:45:39: Balancing the network:

              Trial  1: relative flow change = 0.029636
              Trial  2: relative flow change = 0.000814
              Pipe P-4_Bartesta_Branch switched from open to closed
              Trial  3: relative flow change = 0.048396
              Trial  4: relative flow change = 0.001970
              Trial  5: relative flow change = 0.000020
                        maximum  flow change = 0.0074 for Link P-1_Driftwood_Loop
                        maximum  head error  = 0.0000 for Link ~@Cowen_Pumpa

     2:45:39: Balanced after 5 trials
     2:45:39: Tank Bartesta_Tank is closed at 10.50 ft
     2:45:39: Pipe P-4_Bartesta_Branch changed from open to temporarily closed
   
     3:00:00: Balancing the network:

              Trial  1: relative flow change = 0.009078
              Trial  2: relative flow change = 0.000073
                        maximum  flow change = 0.1554 for Link P-8
                        maximum  head error  = 0.0000 for Link ~@Clearwell_Pump

     3:00:00: Balanced after 2 trials
   
     3:01:13: Balancing the network:

              Trial  1: relative flow change = 0.000722
              Trial  2: relative flow change = 0.000009
                        maximum  flow change = 0.0031 for Link P-2_Texas
                        maximum  head error  = 0.0000 for Link P-1_Fairview

              Pipe P-1_CS_1015 switched from open to closed
              Pipe P-3_CS_1015 switched from open to closed
              Trial  3: relative flow change = 0.282839
              Trial  4: relative flow change = 0.028041
              Trial  5: relative flow change = 0.000929
              Trial  6: relative flow change = 0.000010
                        maximum  flow change = 0.0067 for Link P-4_Cola
                        maximum  head error  = 0.0000 for Link P-1_Sword

     3:01:13: Balanced after 6 trials
     3:01:13: Tank Tunnel_Hill_Tank is closed at 48.00 ft
     3:01:13: Pipe P-1_CS_1015 changed from open to temporarily closed
     3:01:13: Pipe P-3_CS_1015 changed from open to temporarily closed
   
     4:00:00: Balancing the network:

              Trial  1: relative flow change = 0.012126
              Trial  2: relative flow change = 0.000191
              Trial  3: relative flow change = 0.000007
                        maximum  flow change = 0.0027 for Link P-4_Cougar
                        maximum  head error  = 0.0000 for Link P-27_KY_931

     4:00:00: Balanced after 3 trials
   
     4:50:00: Pump ~@High_Service_Pump changed by timer control
     4:50:00: Balancing the network:

              Trial  1: relative flow change = 1.901458
              Trial  2: relative flow change = 0.354974
              Pipe P-1_CS_1015 switched from closed to open
              Pipe P-3_CS_1015 switched from closed to open
              Trial  3: relative flow change = 0.303781
              Trial  4: relative flow change = 0.202682
              Trial  5: relative flow change = 0.044117
              Trial  6: relative flow change = 0.007510
              Trial  7: relative flow change = 0.000771
              Trial  8: relative flow change = 0.000295
              Trial  9: relative flow change = 0.000144
              Trial 10: relative flow change = 0.000086
                        maximum  flow change = 0.7549 for Link ~@High_Service_Pump
                        maximum  head error  = 0.0000 for Link P-5_KY_119a

     4:50:00: Balanced after 10 trials
     4:50:00: Tank Clearwell is filling at 24.99 ft
     4:50:00: Tank Sawmill_Road_Tank is emptying at 36.40 ft
     4:50:00: Tank Tunnel_Hill_Tank is emptying at 48.00 ft
     4:50:00: Pipe P-1_CS_1015 changed from temporarily closed to open
     4:50:00: Pipe P-3_CS_1015 changed from temporarily closed to open
     4:50:00: Pump ~@High_Service_Pump changed from open to closed
   
     5:00:00: Balancing the network:

              Trial  1: relative flow change = 0.023743
              Trial  2: relative flow change = 0.000462
              Trial  3: relative flow change = 0.000029
                        maximum  flow change = 0.0944 for Link ~@High_Service_Pump
                        maximum  head error  = 0.0000 for Link P-3_Church

     5:00:00: Balanced after 3 trials
   
     5:14:55: Balancing the network:

              Trial  1: relative flow change = 0.030902
              Trial  2: relative flow change = 0.000874
              Pipe P-4_Cougar switched from open to closed
              Trial  3: relative flow change = 0.262353
              Trial  4: relative flow change = 0.010992
              Trial  5: relative flow change = 0.000598
              Trial  6: relative flow change = 0.000034
                        maximum  flow change = 0.0051 for Link P-5_KY_119a
                        maximum  head error  = 0.0002 for Link ~@Colley_Pump

     5:14:55: Balanced after 6 trials
     5:14:55: Tank Colley_Tank is closed at 23.00 ft
     5:14:55: Pipe P-4_Cougar changed from open to temporarily closed
   
     5:30:00: Pump ~@Colley_Pump changed by timer control
     5:30:00: Balancing the network:

              Trial  1: relative flow change = 0.027946
              Trial  2: relative flow change = 0.001335
              Pipe P-4_Cougar switched from closed to open
              Trial  3: relative flow change = 0.009427
              Trial  4: relative flow change = 0.000366
              Trial  5: relative flow change = 0.000073
                        maximum  flow change = 0.3772 for Link ~@Colley_Pump
                        maximum  head error  = 0.0000 for Link P-2_Sturgill_Branch

     5:30:00: Balanced after 5 trials
     5:30:00: Tank Colley_Tank is emptying at 23.00 ft
     5:30:00: Pipe P-4_Cougar changed from temporarily closed to open
     5:30:00: Pump ~@Colley_Pump changed from open to closed
   
     6:00:00: Balancing the network:

              Trial  1: relative flow change = 0.043327
              Trial  2: relative flow change = 0.001321
              Trial  3: relative flow change = 0.000033
                        maximum  flow change = 0.0472 for Link ~@Colley_Pump
                        maximum  head error  = 0.0000 for Link ~@Clearwell_Pump

     6:00:00: Balanced after 3 trials
   
     6:34:43: Balancing the network:

              Trial  1: relative flow change = 0.038111
              Trial  2: relative flow change = 0.001393
              Pipe P-2 switched from open to closed
              Trial  3: relative flow change = 0.192585
              Trial  4: relative flow change = 0.000037
                        maximum  flow change = 0.0058 for Link P-2_Hospital
                        maximum  head error  = 48.0000 for Link ~@Clearwell_Pump

     6:34:43: Balanced after 4 trials
     6:34:43: Reservoir R-1 is closed
     6:34:43: Tank Clearwell is closed at 35.00 ft
     6:34:43: Pipe P-2 changed from open to temporarily closed
   
     6:50:00: Pump ~@Clearwell_Pump changed by timer control
     6:50:00: Balancing the network:

              Trial  1: relative flow change = 0.010489
              Trial  2: relative flow change = 0.000096
                        maximum  flow change = 0.0330 for Link P-1_Cowan
                        maximum  head error  = 0.0000 for Link P-1_Madison

              Pipe P-2 switched from closed to open
              Trial  3: relative flow change = 0.000024
                        maximum  flow change = 0.0037 for Link P-1_KY_15
                        maximum  head error  = 0.0000 for Link P-27_KY_931

     6:50:00: Balanced after 3 trials
     6:50:00: Pipe P-2 changed from temporarily closed to open
     6:50:00: Pump ~@Clearwell_Pump changed from open to closed
   
     7:00:00: Balancing the network:

              Trial  1: relative flow change = 0.013530
              Trial  2: relative flow change = 0.000056
                        maximum  flow change = 0.0140 for Link P-1_College
                        maximum  head error  = 0.0000 for Link P-2_Sturgill_Branch

     7:00:00: Balanced after 2 trials
   
     8:00:00: Balancing the network:

              Trial  1: relative flow change = 0.040108
              Trial  2: relative flow change = 0.001227
              Trial  3: relative flow change = 0.000061
                        maximum  flow change = 0.0112 for Link P-6_Madison
                        maximum  head error  = 0.0000 for Link ~@Bartesta_Pump

     8:00:00: Balanced after 3 trials
   
     9:00:00: Balancing the network:

              Trial  1: relative flow change = 0.023453
              Trial  2: relative flow change = 0.000490
              Trial  3: relative flow change = 0.000030
                        maximum  flow change = 0.0042 for Link P-4_Cougar
                        maximum  head error  = 0.0000 for Link ~@Bartesta_Pump

     9:00:00: Balanced after 3 trials
   
     9:14:42: Balancing the network:

              Trial  1: relative flow change = 0.003625
              Trial  2: relative flow change = 0.000037
                        maximum  flow change = 0.0040 for Link P-6
                        maximum  head error  = 0.0000 for Link P-2_Sturgill_Branch

              Pipe P-1_Astor_Fields switched from open to closed
              Trial  3: relative flow change = 1.755734
              Trial  4: relative flow change = 0.084709
              Trial  5: relative flow change = 0.007428
              Trial  6: relative flow change = 0.000514
              Trial  7: relative flow change = 0.000085
                        maximum  flow change = 0.0077 for Link P-1_4th
                        maximum  head error  = 0.0000 for Link ~@Bartesta_Pump

     9:14:42: Balanced after 7 trials
     9:14:42: Tank Cowan_Tank is closed at 20.00 ft
     9:14:42: Pipe P-1_Astor_Fields changed from open to temporarily closed
   
    10:00:00: Balancing the network:

              Trial  1: relative flow change = 0.091116
              Trial  2: relative flow change = 0.002433
              Trial  3: relative flow change = 0.000077
                        maximum  flow change = 0.0047 for Link P-18
                        maximum  head error  = 0.0000 for Link P-1_NeedlePoint

    10:00:00: Balanced after 3 trials
   
    11:00:00: Balancing the network:

              Trial  1: relative flow change = 0.109912
              Trial  2: relative flow change = 0.002874
              Trial  3: relative flow change = 0.000090
                        maximum  flow change = 0.0062 for Link P-2_Hospital
                        maximum  head error  = 0.0000 for Link ~@Bartesta_Pump

    11:00:00: Balanced after 3 trials
   
    12:00:00: Balancing the network:

              Trial  1: relative flow change = 0.069726
              Trial  2: relative flow change = 0.001259
              Trial  3: relative flow change = 0.000083
                        maximum  flow change = 0.0056 for Link P-4_Main
                        maximum  head error  = 0.0000 for Link P-2_Pine

    12:00:00: Balanced after 3 trials
   
    13:00:00: Balancing the network:

              Trial  1: relative flow change = 0.030807
              Trial  2: relative flow change = 0.000482
              Trial  3: relative flow change = 0.000114
              Trial  4: relative flow change = 0.000107
              Trial  5: relative flow change = 0.000068
                        maximum  flow change = 0.0039 for Link P-2_Powell_Widner
                        maximum  head error  = 0.0000 for Link ~@Bartesta_Pump

    13:00:00: Balanced after 5 trials
   
    13:30:00: Pump ~@Clearwell_Pump changed by timer control
    13:30:00: Balancing the network:

              Trial  1: relative flow change = 0.221816
              Trial  2: relative flow change = 0.002978
              Pipe P-2 switched from open to closed
              Trial  3: relative flow change = 0.461275
              Trial  4: relative flow change = 0.000076
                        maximum  flow change = 0.0031 for Link P-18_KY_931b
                        maximum  head error  = 48.0000 for Link ~@Clearwell_Pump

    13:30:00: Balanced after 4 trials
    13:30:00: Pipe P-2 changed from open to temporarily closed
    13:30:00: Pump ~@Clearwell_Pump changed from closed to open
   
    14:00:00: Pump ~@High_Service_Pump changed by timer control
    14:00:00: Balancing the network:

              Trial  1: relative flow change = 0.913887
              Trial  2: relative flow change = 0.587206
              Pipe P-2 switched from closed to open
              Trial  3: relative flow change = 0.181135
              Trial  4: relative flow change = 0.014154
              Trial  5: relative flow change = 0.000211
              Trial  6: relative flow change = 0.000021
                        maximum  flow change = 0.0052 for Link P-16_KY_931
                        maximum  head error  = 47.9913 for Link ~@Clearwell_Pump

    14:00:00: Balanced after 6 trials
    14:00:00: Tank Clearwell is emptying at 35.00 ft
    14:00:00: Tank Sawmill_Road_Tank is filling at 29.65 ft
    14:00:00: Tank Tunnel_Hill_Tank is filling at 39.69 ft
    14:00:00: Pipe P-2 changed from temporarily closed to open
    14:00:00: Pump ~@High_Service_Pump changed from closed to open
   
    15:00:00: Balancing the network:

              Trial  1: relative flow change = 0.047639
              Trial  2: relative flow change = 0.002902
              Trial  3: relative flow change = 0.000014
                        maximum  flow change = 0.0079 for Link P-18
                        maximum  head error  = 39.0887 for Link ~@Clearwell_Pump

    15:00:00: Balanced after 3 trials
   
    15:10:16: Balancing the network:

              Trial  1: relative flow change = 0.007545
              Trial  2: relative flow change = 0.000079
                        maximum  flow change = 0.0445 for Link P-18
                        maximum  head error  = 37.6391 for Link ~@Clearwell_Pump

              Pipe P-1_CS_1015 switched from open to closed
              Pipe P-3_CS_1015 switched from open to closed
              Trial  3: relative flow change = 0.493841
              Trial  4: relative flow change = 0.015466
              Trial  5: relative flow change = 0.000274
              Trial  6: relative flow change = 0.000024
                        maximum  flow change = 0.0108 for Link P-18
                        maximum  head error  = 37.6393 for Link ~@Clearwell_Pump

    15:10:16: Balanced after 6 trials
    15:10:16: Tank Tunnel_Hill_Tank is closed at 48.00 ft
    15:10:16: Pipe P-1_CS_1015 changed from open to temporarily closed
    15:10:16: Pipe P-3_CS_1015 changed from open to temporarily closed
   
    16:00:00: Balancing the network:

              Trial  1: relative flow change = 0.020162
              Trial  2: relative flow change = 0.000187
              Trial  3: relative flow change = 0.000026
                        maximum  flow change = 0.0145 for Link P-18
                        maximum  head error  = 31.7165 for Link ~@Clearwell_Pump

    16:00:00: Balanced after 3 trials
   
    17:00:00: Balancing the network:

              Trial  1: relative flow change = 0.024872
              Trial  2: relative flow change = 0.000264
              Trial  3: relative flow change = 0.000010
                        maximum  flow change = 0.0068 for Link P-18
                        maximum  head error  = 24.7019 for Link ~@Clearwell_Pump

    17:00:00: Balanced after 3 trials
   
    18:00:00: Balancing the network:

              Trial  1: relative flow change = 0.024252
              Trial  2: relative flow change = 0.000262
              Trial  3: relative flow change = 0.000019
                        maximum  flow change = 0.0123 for Link P-18
                        maximum  head error  = 17.8392 for Link ~@Clearwell_Pump

    18:00:00: Balanced after 3 trials
   
    18:06:57: Balancing the network:

              Trial  1: relative flow change = 0.002508
              Trial  2: relative flow change = 0.000015
                        maximum  flow change = 0.0043 for Link P-6_KY_15
                        maximum  head error  = 17.0611 for Link ~@Clearwell_Pump

              Pipe P-18 switched from open to closed
              Trial  3: relative flow change = 2.712422
              Trial  4: relative flow change = 0.005636
              Trial  5: relative flow change = 0.000124
              Trial  6: relative flow change = 0.000049
                        maximum  flow change = 0.0054 for Link P-7
                        maximum  head error  = 17.0611 for Link ~@Clearwell_Pump

    18:06:57: Balanced after 6 trials
    18:06:57: Tank Sawmill_Road_Tank is closed at 37.00 ft
    18:06:57: Pipe P-18 changed from open to temporarily closed
   
    19:00:00: Balancing the network:

              Trial  1: relative flow change = 0.006360
              Trial  2: relative flow change = 0.000052
                        maximum  flow change = 0.0039 for Link P-1_College
                        maximum  head error  = 15.3659 for Link ~@Clearwell_Pump

    19:00:00: Balanced after 2 trials
   
    20:00:00: Balancing the network:

              Trial  1: relative flow change = 0.006015
              Trial  2: relative flow change = 0.000104
              Trial  3: relative flow change = 0.000113
              Trial  4: relative flow change = 0.000081
                        maximum  flow change = 0.0101 for Link ~@High_Service_Pump
                        maximum  head error  = 13.4484 for Link ~@Clearwell_Pump

    20:00:00: Balanced after 4 trials
   
    20:14:00: Balancing the network:

              Trial  1: relative flow change = 0.000086
                        maximum  flow change = 0.0140 for Link P-9
                        maximum  head error  = 13.0002 for Link ~@Clearwell_Pump

              Pipe P-7 switched from open to closed
              Trial  2: relative flow change = 1.907317
              Trial  3: relative flow change = 0.238936
              Pipe P-18 switched from closed to open
              Pipe P-1_Astor_Fields switched from closed to open
              Pipe P-1_CS_1015 switched from closed to open
              Pipe P-3_CS_1015 switched from closed to open
              Pipe P-4_Bartesta_Branch switched from closed to open
              Pump ~@Bartesta_Pump switched from open to closed
              Pump ~@Cowen_Pumpa switched from open to closed
              Trial  4: relative flow change = 1.455372
              Trial  5: relative flow change = 0.284340
              Pump ~@Bartesta_Pump switched from closed to open
              Pump ~@Cowen_Pumpa switched from closed to open
              Trial  6: relative flow change = 0.992620
              Trial  7: relative flow change = 0.906535
              Pipe P-18 switched from open to closed
              Pipe P-1_CS_1015 switched from open to closed
              Pipe P-3_CS_1015 switched from open to closed
              Pipe P-4_Bartesta_Branch switched from open to closed
              Pump ~@Bartesta_Pump switched from open to closed
              Trial  8: relative flow change = 5.718630
              Trial  9: relative flow change = 1.073567
              Pipe P-4_Bartesta_Branch switched from closed to open
              Pump ~@Bartesta_Pump switched from closed to open
              Trial 10: relative flow change = 0.244099
              Trial 11: relative flow change = 0.077172
              Trial 12: relative flow change = 0.010975
              Trial 13: relative flow change = 0.000411
              Trial 14: relative flow change = 0.000021
                        maximum  flow change = 0.0048 for Link P-6_KY_15
                        maximum  head error  = 107.4264 for Link ~@High_Service_Pump

              Pipe P-18 switched from closed to open
              Pipe P-1_CS_1015 switched from closed to open
              Pipe P-3_CS_1015 switched from closed to open
              Pump ~@Bartesta_Pump switched from open to closed
              Pump ~@Cowen_Pumpa switched from open to closed
              Trial 15: relative flow change = 3.304089
              Trial 16: relative flow change = 0.367140
              Trial 17: relative flow change = 0.085434
              Trial 18: relative flow change = 0.015688
              Trial 19: relative flow change = 0.000411
[...]
   
     1:00:00: Balancing the network:

              Trial  1: relative flow change = 0.123579
              Trial  2: relative flow change = 0.008027
              Trial  3: relative flow change = 0.000079
                        maximum  flow change = 0.2214 for Link P-8
                        maximum  head error  = 0.0000 for Link ~@Clearwell_Pump

     1:00:00: Balanced after 3 trials
   
     1:14:00: Pump ~@High_Service_Pump changed by timer control
     1:14:00: Balancing the network:

              Trial  1: relative flow change = 0.658839
              Trial  2: relative flow change = 0.319170
              Trial  3: relative flow change = 0.047733
              Trial  4: relative flow change = 0.003362
              Trial  5: relative flow change = 0.000015
                        maximum  flow change = 0.0144 for Link P-18
                        maximum  head error  = 0.0000 for Link P-5_Bartesta_Branch

     1:14:00: Balanced after 5 trials
     1:14:00: Tank Clearwell is emptying at 34.64 ft
     1:14:00: Tank Sawmill_Road_Tank is filling at 33.16 ft
     1:14:00: Tank Tunnel_Hill_Tank is filling at 35.67 ft
     1:14:00: Pump ~@High_Service_Pump changed from closed to open
   
     2:00:00: Balancing the network:

              Trial  1: relative flow change = 0.030670
              Trial  2: relative flow change = 0.000950
              Trial  3: relative flow change = 0.000010
                        maximum  flow change = 0.0095 for Link P-2
                        maximum  head error  = 0.0000 for Link ~@Clearwell_Pump

     2:00:00: Balanced after 3 trials
   
     2:40:31: Balancing the network:

              Trial  1: relative flow change = 0.011128
              Trial  2: relative flow change = 0.000395
              Pipe P-4_Bartesta_Branch switched from open to closed
              Trial  3: relative flow change = 0.054219
              Trial  4: relative flow change = 0.002080
              Trial  5: relative flow change = 0.000020
                        maximum  flow change = 0.0069 for Link P-1_KY_931a
                        maximum  head error  = 0.0000 for Link ~@Bartesta_Pump

     2:40:31: Balanced after 5 trials
     2:40:31: Tank Bartesta_Tank is closed at 10.50 ft
     2:40:31: Pipe P-4_Bartesta_Branch changed from open to temporarily closed
   
     3:00:00: Balancing the network:

              Trial  1: relative flow change = 0.082219
              Trial  2: relative flow change = 0.004755
              Trial  3: relative flow change = 0.000183
              Trial  4: relative flow change = 0.000017
                        maximum  flow change = 0.0059 for Link P-6_KY_15
                        maximum  head error  = 0.0000 for Link P-2_Marlow

     3:00:00: Balanced after 4 trials
   
     4:00:00: Balancing the network:

              Trial  1: relative flow change = 0.143236
              Trial  2: relative flow change = 0.012953
              Trial  3: relative flow change = 0.000441
              Trial  4: relative flow change = 0.000014
                        maximum  flow change = 0.0057 for Link P-1_KY_15
                        maximum  head error  = 0.0000 for Link ~@Cowen_Pumpa

     4:00:00: Balanced after 4 trials
   
     4:50:00: Pump ~@High_Service_Pump changed by timer control
     4:50:00: Balancing the network:

              Trial  1: relative flow change = 1.116679
              Trial  2: relative flow change = 0.202328
              Trial  3: relative flow change = 0.031807
              Trial  4: relative flow change = 0.005292
              Trial  5: relative flow change = 0.002083
              Trial  6: relative flow change = 0.001044
              Trial  7: relative flow change = 0.000525
              Trial  8: relative flow change = 0.000277
              Trial  9: relative flow change = 0.000146
              Trial 10: relative flow change = 0.000082
                        maximum  flow change = 0.8479 for Link ~@High_Service_Pump
                        maximum  head error  = 0.0000 for Link P-1_Fairview

     4:50:00: Balanced after 10 trials
     4:50:00: Tank Clearwell is filling at 23.08 ft
     4:50:00: Tank Sawmill_Road_Tank is emptying at 34.69 ft
     4:50:00: Tank Tunnel_Hill_Tank is emptying at 45.23 ft
     4:50:00: Pump ~@High_Service_Pump changed from open to closed
   
     5:00:00: Balancing the network:

              Trial  1: relative flow change = 0.169941
              Trial  2: relative flow change = 0.013258
              Trial  3: relative flow change = 0.000600
              Trial  4: relative flow change = 0.000029
                        maximum  flow change = 0.0530 for Link ~@High_Service_Pump
                        maximum  head error  = 0.0000 for Link P-1_Letcher

     5:00:00: Balanced after 4 trials
   
     5:30:00: Pump ~@Colley_Pump changed by timer control
     5:30:00: Balancing the network:

              Trial  1: relative flow change = 0.258327
              Trial  2: relative flow change = 0.021982
              Trial  3: relative flow change = 0.002227
              Trial  4: relative flow change = 0.000650
              Trial  5: relative flow change = 0.000340
              Trial  6: relative flow change = 0.000176
              Trial  7: relative flow change = 0.000099
                        maximum  flow change = 0.7499 for Link ~@Colley_Pump
                        maximum  head error  = 0.0000 for Link P-4_Indiana

     5:30:00: Balanced after 7 trials
     5:30:00: Tank Colley_Tank is emptying at 22.53 ft
     5:30:00: Pump ~@Colley_Pump changed from open to closed
   
     6:00:00: Balancing the network:

              Trial  1: relative flow change = 0.024848
              Trial  2: relative flow change = 0.001056
              Trial  3: relative flow change = 0.000053
                        maximum  flow change = 0.0937 for Link ~@Colley_Pump
                        maximum  head error  = 0.0000 for Link ~@Clearwell_Pump

     6:00:00: Balanced after 3 trials
   
     6:50:00: Pump ~@Clearwell_Pump changed by timer control
     6:50:00: Balancing the network:

              Trial  1: relative flow change = 0.187067
              Trial  2: relative flow change = 0.017817
              Trial  3: relative flow change = 0.008923
              Trial  4: relative flow change = 0.004489
              Trial  5: relative flow change = 0.002269
              Trial  6: relative flow change = 0.001151
              Trial  7: relative flow change = 0.000581
              Trial  8: relative flow change = 0.000306
              Trial  9: relative flow change = 0.000172
              Trial 10: relative flow change = 0.000102
              Trial 11: relative flow change = 0.000061
                        maximum  flow change = 0.2708 for Link ~@Clearwell_Pump
                        maximum  head error  = 0.0000 for Link P-1_Sword

     6:50:00: Balanced after 11 trials
     6:50:00: Reservoir R-1 is closed
     6:50:00: Tank Clearwell is closed at 34.98 ft
     6:50:00: Pump ~@Clearwell_Pump changed from open to closed
   
     7:00:00: Balancing the network:

              Trial  1: relative flow change = 0.009668
              Trial  2: relative flow change = 0.000037
                        maximum  flow change = 0.0677 for Link ~@Clearwell_Pump
                        maximum  head error  = 0.0000 for Link ~@Bartesta_Pump

     7:00:00: Balanced after 2 trials
   
     8:00:00: Balancing the network:

              Trial  1: relative flow change = 0.018405
              Trial  2: relative flow change = 0.000168
              Trial  3: relative flow change = 0.000028
                        maximum  flow change = 0.0085 for Link ~@Clearwell_Pump
                        maximum  head error  = 0.0000 for Link P-1_Cornelia

     8:00:00: Balanced after 3 trials
   
     9:00:00: Balancing the network:

              Trial  1: relative flow change = 0.011818
              Trial  2: relative flow change = 0.000112
              Trial  3: relative flow change = 0.000021
                        maximum  flow change = 0.0027 for Link P-4_Main
                        maximum  head error  = 0.0000 for Link P-1_Duncan

     9:00:00: Balanced after 3 trials
   
     9:11:56: Balancing the network:

              Trial  1: relative flow change = 0.001682
              Trial  2: relative flow change = 0.000036
                        maximum  flow change = 0.0045 for Link P-4_Main
                        maximum  head error  = 0.0000 for Link P-1_Duncan

              Pipe P-1_Astor_Fields switched from open to closed
              Trial  3: relative flow change = 1.702702
              Trial  4: relative flow change = 0.113580
              Trial  5: relative flow change = 0.010257
              Trial  6: relative flow change = 0.000598
              Trial  7: relative flow change = 0.000131
              Trial  8: relative flow change = 0.000093
                        maximum  flow change = 0.0069 for Link P-2_Hospital
                        maximum  head error  = 0.0000 for Link P-3_Jenkins

     9:11:56: Balanced after 8 trials
     9:11:56: Tank Cowan_Tank is closed at 20.00 ft
     9:11:56: Pipe P-1_Astor_Fields changed from open to temporarily closed
   
    10:00:00: Balancing the network:

              Trial  1: relative flow change = 0.100619
              Trial  2: relative flow change = 0.004699
              Trial  3: relative flow change = 0.000061
                        maximum  flow change = 0.0037 for Link P-4_Jenkins
                        maximum  head error  = 0.0000 for Link P-4_Jenkins

    10:00:00: Balanced after 3 trials
   
    11:00:00: Balancing the network:

              Trial  1: relative flow change = 0.114716
              Trial  2: relative flow change = 0.003327
              Trial  3: relative flow change = 0.000094
                        maximum  flow change = 0.0055 for Link P-2_CS_1015
                        maximum  head error  = 0.0000 for Link ~@Bartesta_Pump

    11:00:00: Balanced after 3 trials
   
    12:00:00: Balancing the network:

              Trial  1: relative flow change = 0.073314
              Trial  2: relative flow change = 0.001440
              Trial  3: relative flow change = 0.000059
                        maximum  flow change = 0.0030 for Link P-4_Main
                        maximum  head error  = 0.0000 for Link P-1_Duncan

    12:00:00: Balanced after 3 trials
   
    13:00:00: Balancing the network:

              Trial  1: relative flow change = 0.033128
              Trial  2: relative flow change = 0.000520
              Trial  3: relative flow change = 0.000058
                        maximum  flow change = 0.0039 for Link P-2_Hospital
                        maximum  head error  = 0.0000 for Link P-2_Marlow

    13:00:00: Balanced after 3 trials
   
    13:30:00: Pump ~@Clearwell_Pump changed by timer control
    13:30:00: Balancing the network:

              Trial  1: relative flow change = 0.222128
              Trial  2: relative flow change = 0.002980
              Trial  3: relative flow change = 0.000070
                        maximum  flow change = 0.0431 for Link P-2
                        maximum  head error  = 0.0000 for Link ~@Clearwell_Pump

    13:30:00: Balanced after 3 trials
    13:30:00: Reservoir R-1 is emptying
    13:30:00: Tank Clearwell is filling at 34.98 ft
    13:30:00: Pump ~@Clearwell_Pump changed from closed to open
   
    13:30:13: Balancing the network:

              Trial  1: relative flow change = 0.000160
              Trial  2: relative flow change = 0.000042
                        maximum  flow change = 0.0032 for Link P-1_KY_15
                        maximum  head error  = 0.0000 for Link P-1_Center

              Pipe P-2 switched from open to closed
              Trial  3: relative flow change = 0.460597
              Trial  4: relative flow change = 0.000081
                        maximum  flow change = 0.0063 for Link P-4_Main
                        maximum  head error  = 48.0000 for Link ~@Clearwell_Pump

    13:30:13: Balanced after 4 trials
    13:30:13: Reservoir R-1 is closed
    13:30:13: Tank Clearwell is closed at 35.00 ft
    13:30:13: Pipe P-2 changed from open to temporarily closed
   
    14:00:00: Pump ~@High_Service_Pump changed by timer control
    14:00:00: Balancing the network:

              Trial  1: relative flow change = 0.914195
              Trial  2: relative flow change = 0.588999
              Pipe P-2 switched from closed to open
              Trial  3: relative flow change = 0.180616
              Trial  4: relative flow change = 0.014007
              Trial  5: relative flow change = 0.000188
              Trial  6: relative flow change = 0.000014
                        maximum  flow change = 0.0031 for Link P-2_Texas
                        maximum  head error  = 47.9916 for Link ~@Clearwell_Pump

    14:00:00: Balanced after 6 trials
    14:00:00: Tank Clearwell is emptying at 35.00 ft
    14:00:00: Tank Sawmill_Road_Tank is filling at 27.61 ft
    14:00:00: Tank Tunnel_Hill_Tank is filling at 37.65 ft
    14:00:00: Pipe P-2 changed from temporarily closed to open
    14:00:00: Pump ~@High_Service_Pump changed from closed to open
   
    15:00:00: Balancing the network:

              Trial  1: relative flow change = 0.047239
              Trial  2: relative flow change = 0.002937
              Trial  3: relative flow change = 0.000012
                        maximum  flow change = 0.0030 for Link P-4_KY_15
                        maximum  head error  = 39.0203 for Link ~@Clearwell_Pump

    15:00:00: Balanced after 3 trials
   
    15:28:46: Balancing the network:

              Trial  1: relative flow change = 0.021121
              Trial  2: relative flow change = 0.000560
              Pipe P-1_CS_1015 switched from open to closed
              Pipe P-3_CS_1015 switched from open to closed
              Trial  3: relative flow change = 0.480299
              Trial  4: relative flow change = 0.014440
              Trial  5: relative flow change = 0.000266
              Trial  6: relative flow change = 0.000015
                        maximum  flow change = 0.0053 for Link P-1_Driftwood_Loopa
                        maximum  head error  = 34.9285 for Link ~@Clearwell_Pump

    15:28:46: Balanced after 6 trials
    15:28:46: Tank Tunnel_Hill_Tank is closed at 48.00 ft
    15:28:46: Pipe P-1_CS_1015 changed from open to temporarily closed
    15:28:46: Pipe P-3_CS_1015 changed from open to temporarily closed
   
    16:00:00: Balancing the network:

              Trial  1: relative flow change = 0.012809
              Trial  2: relative flow change = 0.000083
                        maximum  flow change = 0.0544 for Link P-2_KY_15
                        maximum  head error  = 31.2180 for Link ~@Clearwell_Pump

    16:00:00: Balanced after 2 trials
   
    17:00:00: Balancing the network:

              Trial  1: relative flow change = 0.024984
              Trial  2: relative flow change = 0.000264
              Trial  3: relative flow change = 0.000019
                        maximum  flow change = 0.0070 for Link P-15_KY_931
                        maximum  head error  = 24.1723 for Link ~@Clearwell_Pump

    17:00:00: Balanced after 3 trials
   
    18:00:00: Balancing the network:

              Trial  1: relative flow change = 0.024353
              Trial  2: relative flow change = 0.000261
              Trial  3: relative flow change = 0.000017
                        maximum  flow change = 0.0053 for Link P-5_Main
                        maximum  head error  = 17.2799 for Link ~@Clearwell_Pump

    18:00:00: Balanced after 3 trials
   
    18:38:04: Balancing the network:

              Trial  1: relative flow change = 0.013935
              Trial  2: relative flow change = 0.000104
              Pipe P-7 switched from open to closed
              Trial  3: relative flow change = 4.304278
              Trial  4: relative flow change = 0.024058
              Pipe P-1_CS_1015 switched from closed to open
              Pipe P-3_CS_1015 switched from closed to open
              Trial  5: relative flow change = 0.685232
              Trial  6: relative flow change = 0.367023
              Trial  7: relative flow change = 0.090861
              Trial  8: relative flow change = 0.011947
              Pipe P-7 switched from closed to open
              Trial  9: relative flow change = 0.000226
              Trial 10: relative flow change = 0.000064
                        maximum  flow change = 0.0032 for Link P-15_KY_931
                        maximum  head error  = 233.2367 for Link ~@High_Service_Pump

    18:38:04: Balanced after 10 trials
    18:38:04: Tank Clearwell is closed at -0.00 ft
    18:38:04: Tank Sawmill_Road_Tank is emptying at 35.71 ft
    18:38:04: Tank Tunnel_Hill_Tank is emptying at 48.00 ft
    18:38:04: Pipe P-1_CS_1015 changed from temporarily closed to open
    18:38:04: Pipe P-3_CS_1015 changed from temporarily closed to open
   
    19:00:00: Balancing the network:

              Trial  1: relative flow change = 0.132348
              Trial  2: relative flow change = 0.002536
              Trial  3: relative flow change = 0.000108
              Trial  4: relative flow change = 0.000114
              Trial  5: relative flow change = 0.000126
              Trial  6: relative flow change = 0.000089
                        maximum  flow change = 0.0059 for Link P-18
                        maximum  head error  = 236.7557 for Link ~@High_Service_Pump

    19:00:00: Balanced after 6 trials
   
    20:00:00: Balancing the network:

              Trial  1: relative flow change = 0.267213
              Trial  2: relative flow change = 0.023051
              Trial  3: relative flow change = 0.001835
              Trial  4: relative flow change = 0.000130
              Trial  5: relative flow change = 0.000126
              Trial  6: relative flow change = 0.000088
                        maximum  flow change = 0.0063 for Link P-4_KY_15
                        maximum  head error  = 235.7741 for Link ~@High_Service_Pump

    20:00:00: Balanced after 6 trials
   
    21:00:00: Pump ~@Colley_Pump changed by timer control
    21:00:00: Balancing the network:

              Trial  1: relative flow change = 0.966578
              Trial  2: relative flow change = 1.532113
              Trial  3: relative flow change = 1.567177
              Trial  4: relative flow change = 0.493196
              Trial  5: relative flow change = 0.198637
              Trial  6: relative flow change = 0.052359
              Trial  7: relative flow change = 0.002974
              Trial  8: relative flow change = 0.000050
                        maximum  flow change = 0.0058 for Link P-3_KY_119
                        maximum  head error  = 234.2268 for Link ~@High_Service_Pump

    21:00:00: Balanced after 8 trials
    21:00:00: Tank Colley_Tank is filling at 21.02 ft
    21:00:00: Pump ~@Colley_Pump changed from closed to open
   
    22:00:00: Balancing the network:

              Trial  1: relative flow change = 0.152991
              Trial  2: relative flow change = 0.009398
              Trial  3: relative flow change = 0.000173
              Trial  4: relative flow change = 0.000076
                        maximum  flow change = 0.0070 for Link P-2_Powell_Widner
                        maximum  head error  = 232.5679 for Link ~@High_Service_Pump

    22:00:00: Balanced after 4 trials
   
    23:00:00: Balancing the network:

              Trial  1: relative flow change = 0.086951
              Trial  2: relative flow change = 0.002292
              Trial  3: relative flow change = 0.000041
                        maximum  flow change = 0.0046 for Link P-2_Driftwood_Loop
                        maximum  head error  = 231.1212 for Link ~@High_Service_Pump

    23:00:00: Balanced after 3 trials
   
    24:00:00: Balan